[TITLE]
Scenario:	»ù´¡	  
Date:	2013-9-11	19:48:06  

[JUNCTIONS]
 1                                     9.2000
 2                                     8.0000
 3                                    10.2000
 4                                    10.0000
 5                                    11.0000
 6                                    15.0000
 7                                    12.0000
 8                                    11.4000
 9                                    10.5000
 10                                   12.0000
 11                                   12.9000
 12                                   17.6000
 13                                   12.0000
 14                                   10.6000
 15                                    9.0000
 16                                   11.8000
 17                                   14.5000
 18                                   10.9000
 19                                   10.0000
 20                                   10.6000
 21                                    9.3000
 22                                   11.5000
 23                                   18.0000
 24                                   10.0000
 25                                   10.8000
 26                                   13.3000
 27                                    9.0000
 28                                   10.4000
 29                                   11.2000
 30                                    9.5000
 31                                    9.2000
 32                                   20.5000
 33                                    9.6000
 34                                   18.0000
 35                                   18.8000
 36                                   11.7000
 37                                    9.4000
 38                                    9.1000
 39                                    9.8000
 40                                   12.0000
 41                                   30.5000
 42                                   12.0000
 43                                   12.1000
 44                                   15.0000
 45                                    9.1000
 46                                    9.6000
 47                                   15.5000
 48                                   18.8000
 49                                    9.7000
 A1                                    9.2000
 B1                                    9.2000
 A2                                    8.0000
 B2                                    8.0000
 A3                                   10.2000
 B3                                   10.2000
 A4                                   10.0000
 B4                                   10.0000
 A5                                   11.0000
 B5                                   11.0000
 A6                                   15.0000
 B6                                   15.0000
 A7                                   12.0000
 B7                                   12.0000
 A8                                   11.4000
 B8                                   11.4000
 A9                                   10.5000
 B9                                   10.5000
 A10                                  12.0000
 B10                                  12.0000
 A11                                  12.9000
 B11                                  12.9000
 A12                                  17.6000
 B12                                  17.6000
 A13                                  12.0000
 B13                                  12.0000
 A14                                  10.6000
 B14                                  10.6000
 A15                                   9.0000
 B15                                   9.0000
 A16                                  11.8000
 B16                                  11.8000
 A17                                  14.5000
 B17                                  14.5000
 A18                                  10.9000
 B18                                  10.9000
 A19                                  10.0000
 B19                                  10.0000
 A20                                  10.6000
 B20                                  10.6000
 A21                                   9.3000
 B21                                   9.3000
 A22                                  11.5000
 B22                                  11.5000
 A23                                  18.0000
 B23                                  18.0000
 A24                                  10.0000
 B24                                  10.0000
 A25                                  10.8000
 B25                                  10.8000
 A26                                  13.3000
 B26                                  13.3000
 A27                                   9.0000
 B27                                   9.0000
 A28                                  10.4000
 B28                                  10.4000
 A29                                  11.2000
 B29                                  11.2000
 A30                                   9.5000
 B30                                   9.5000
 A31                                   9.2000
 B31                                   9.2000
 A32                                  20.5000
 B32                                  20.5000
 A33                                   9.6000
 B33                                   9.6000
 A34                                  18.0000
 B34                                  18.0000
 A35                                  18.8000
 B35                                  18.8000
 A36                                  11.7000
 B36                                  11.7000
 A37                                   9.4000
 B37                                   9.4000
 A38                                   9.1000
 B38                                   9.1000
 A39                                   9.8000
 B39                                   9.8000
 A40                                  12.0000
 B40                                  12.0000
 A41                                  30.5000
 B41                                  30.5000
 A42                                  12.0000
 B42                                  12.0000
 A43                                  12.1000
 B43                                  12.1000
 A44                                  15.0000
 B44                                  15.0000
 A45                                   9.1000
 B45                                   9.1000
 A46                                   9.6000
 B46                                   9.6000
 A47                                  15.5000
 B47                                  15.5000
 A48                                  18.8000
 B48                                  18.8000
 A49                                   9.7000
 B49                                   9.7000

[RESERVOIRS]
 50                                   76.9500 
 53                                   81.9800 
 52                                   83.5800 
 51                                   74.3100 
 R1                                    9.2000 
 R2                                    8.0000 
 R3                                   10.2000 
 R4                                   10.0000 
 R5                                   11.0000 
 R6                                   15.0000 
 R7                                   12.0000 
 R8                                   11.4000 
 R9                                   10.5000 
 R10                                  12.0000 
 R11                                  12.9000 
 R12                                  17.6000 
 R13                                  12.0000 
 R14                                  10.6000 
 R15                                   9.0000 
 R16                                  11.8000 
 R17                                  14.5000 
 R18                                  10.9000 
 R19                                  10.0000 
 R20                                  10.6000 
 R21                                   9.3000 
 R22                                  11.5000 
 R23                                  18.0000 
 R24                                  10.0000 
 R25                                  10.8000 
 R26                                  13.3000 
 R27                                   9.0000 
 R28                                  10.4000 
 R29                                  11.2000 
 R30                                   9.5000 
 R31                                   9.2000 
 R32                                  20.5000 
 R33                                   9.6000 
 R34                                  18.0000 
 R35                                  18.8000 
 R36                                  11.7000 
 R37                                   9.4000 
 R38                                   9.1000 
 R39                                   9.8000 
 R40                                  12.0000 
 R41                                  30.5000 
 R42                                  12.0000 
 R43                                  12.1000 
 R44                                  15.0000 
 R45                                   9.1000 
 R46                                   9.6000 
 R47                                  15.5000 
 R48                                  18.8000 
 R49                                   9.7000 

[TANKS]

[PIPES]
 1                               1                               2                                  1200.0000    1400.0000      80.0000       0.0000 
 2                               1                               3                                  1400.0000     900.0000     120.0000       0.0000 
 3                               2                               3                                   800.0000     300.0000     120.0000       0.0000 
 4                               3                               4                                  2000.0000     300.0000     120.0000       0.0000 
 5                               3                               5                                  1300.0000     900.0000     120.0000       0.0000 
 6                               2                               6                                  2100.0000     750.0000     120.0000       0.0000 
 7                               2                               7                                  2600.0000     600.0000     120.0000       0.0000 
 8                               2                               8                                  3500.0000    1000.0000     120.0000       0.0000 
 9                               8                               9                                   800.0000    1000.0000     120.0000       0.0000 
 10                              9                               18                                  600.0000     700.0000     120.0000       0.0000 
 11                              9                               10                                 1300.0000     300.0000     120.0000       0.0000 
 12                              13                              10                                 1300.0000     300.0000     120.0000       0.0000 
 13                              8                               12                                 3700.0000     500.0000     120.0000       0.0000 
 14                              12                              13                                 1450.0000     500.0000     120.0000       0.0000 
 15                              14                              13                                  500.0000     500.0000     120.0000       0.0000 
 16                              6                               7                                  1400.0000     600.0000     120.0000       0.0000 
 17                              7                               9                                  1500.0000     500.0000     120.0000       0.0000 
 18                              7                               18                                 1100.0000     500.0000     120.0000       0.0000 
 19                              18                              17                                  900.0000     500.0000     120.0000       0.0000 
 20                              18                              19                                 1400.0000     500.0000     120.0000       0.0000 
 21                              9                               14                                 1200.0000     850.0000     120.0000       0.0000 
 22                              14                              26                                 1600.0000     500.0000     120.0000       0.0000 
 23                              14                              19                                  700.0000     500.0000     120.0000       0.0000 
 24                              7                               17                                 1000.0000     600.0000     120.0000       0.0000 
 25                              4                               15                                 1750.0000     300.0000     120.0000       0.0000 
 26                              5                               4                                  2300.0000     500.0000     120.0000       0.0000 
 27                              5                               16                                 1100.0000     900.0000     120.0000       0.0000 
 28                              6                               24                                 2600.0000     500.0000     120.0000       0.0000 
 29                              17                              25                                  750.0000     600.0000     120.0000       0.0000 
 30                              25                              19                                 1300.0000     500.0000     120.0000       0.0000 
 31                              19                              26                                 1600.0000     500.0000     120.0000       0.0000 
 32                              15                              20                                  500.0000     300.0000     120.0000       0.0000 
 33                              15                              21                                 1400.0000     200.0000     120.0000       0.0000 
 34                              16                              21                                 2900.0000     500.0000     120.0000       0.0000 
 35                              16                              23                                 2700.0000     700.0000     120.0000       0.0000 
 36                              27                              20                                 1200.0000     500.0000     120.0000       0.0000 
 37                              27                              21                                 1050.0000     500.0000     120.0000       0.0000 
 38                              21                              22                                 1200.0000     500.0000     120.0000       0.0000 
 39                              33                              34                                 1000.0000     500.0000     120.0000       0.0000 
 40                              34                              27                                 1500.0000     500.0000     120.0000       0.0000 
 41                              41                              34                                 1000.0000     600.0000     120.0000       0.0000 
 42                              28                              22                                 2000.0000     300.0000     120.0000       0.0000 
 43                              29                              22                                 2900.0000     500.0000     120.0000       0.0000 
 44                              49                              41                                 3000.0000    1600.0000      90.0000       0.0000 
 45                              41                              35                                 1700.0000    1400.0000      90.0000       0.0000 
 46                              35                              36                                  850.0000    1400.0000      90.0000       0.0000 
 47                              36                              28                                 1400.0000    1100.0000     100.0000       0.0000 
 48                              28                              29                                 1100.0000    1100.0000     100.0000       0.0000 
 49                              23                              29                                  950.0000     850.0000      90.0000       0.0000 
 50                              23                              24                                  950.0000     500.0000     120.0000       0.0000 
 51                              24                              25                                  900.0000     500.0000     120.0000       0.0000 
 52                              29                              30                                 3000.0000     700.0000     120.0000       0.0000 
 53                              41                              47                                 3150.0000     500.0000     120.0000       0.0000 
 54                              35                              42                                 1200.0000     500.0000     120.0000       0.0000 
 55                              42                              47                                 1500.0000     500.0000     120.0000       0.0000 
 56                              42                              43                                 1000.0000     500.0000     120.0000       0.0000 
 57                              36                              43                                 1100.0000     500.0000     120.0000       0.0000 
 58                              43                              48                                 3600.0000    1000.0000     120.0000       0.0000 
 59                              48                              44                                  800.0000    1000.0000     120.0000       0.0000 
 60                              37                              44                                 1750.0000     600.0000     120.0000       0.0000 
 61                              30                              37                                 1100.0000     500.0000     120.0000       0.0000 
 62                              37                              45                                  550.0000     500.0000     120.0000       0.0000 
 63                              45                              38                                  480.0000     400.0000     120.0000       0.0000 
 64                              25                              38                                 2820.0000     700.0000     120.0000       0.0000 
 65                              38                              46                                  680.0000     600.0000     120.0000       0.0000 
 66                              40                              46                                  550.0000     500.0000     120.0000       0.0000 
 67                              44                              40                                 2800.0000     700.0000     120.0000       0.0000 
 68                              46                              39                                 1000.0000     500.0000     120.0000       0.0000 
 69                              31                              39                                 1400.0000     300.0000     120.0000       0.0000 
 70                              26                              31                                  650.0000     500.0000     120.0000       0.0000 
 71                              26                              32                                 1400.0000     500.0000     120.0000       0.0000 
 72                              39                              32                                 1000.0000     500.0000     120.0000       0.0000 
 73                              11                              12                                  900.0000     500.0000     120.0000       0.0000 
 74                              24                              30                                 1100.0000     500.0000     120.0000       0.0000 
 75                              50                              1                                  1742.0000    1000.0000     120.0000       0.0000 
 76                              11                              51                                 6636.3000     500.0000     120.0000       0.0000 
 77                              49                              52                                 4262.8000    1000.0000     120.0000       0.0000 
 78                              33                              53                                 8577.1000     500.0000     120.0000       0.0000 
 C1                              B1                              R1                                    0.0100    1000.0000     100.0000       0.0000 CV
 C2                              B2                              R2                                    0.0100    1000.0000     100.0000       0.0000 CV
 C3                              B3                              R3                                    0.0100    1000.0000     100.0000       0.0000 CV
 C4                              B4                              R4                                    0.0100    1000.0000     100.0000       0.0000 CV
 C5                              B5                              R5                                    0.0100    1000.0000     100.0000       0.0000 CV
 C6                              B6                              R6                                    0.0100    1000.0000     100.0000       0.0000 CV
 C7                              B7                              R7                                    0.0100    1000.0000     100.0000       0.0000 CV
 C8                              B8                              R8                                    0.0100    1000.0000     100.0000       0.0000 CV
 C9                              B9                              R9                                    0.0100    1000.0000     100.0000       0.0000 CV
 C10                             B10                             R10                                   0.0100    1000.0000     100.0000       0.0000 CV
 C11                             B11                             R11                                   0.0100    1000.0000     100.0000       0.0000 CV
 C12                             B12                             R12                                   0.0100    1000.0000     100.0000       0.0000 CV
 C13                             B13                             R13                                   0.0100    1000.0000     100.0000       0.0000 CV
 C14                             B14                             R14                                   0.0100    1000.0000     100.0000       0.0000 CV
 C15                             B15                             R15                                   0.0100    1000.0000     100.0000       0.0000 CV
 C16                             B16                             R16                                   0.0100    1000.0000     100.0000       0.0000 CV
 C17                             B17                             R17                                   0.0100    1000.0000     100.0000       0.0000 CV
 C18                             B18                             R18                                   0.0100    1000.0000     100.0000       0.0000 CV
 C19                             B19                             R19                                   0.0100    1000.0000     100.0000       0.0000 CV
 C20                             B20                             R20                                   0.0100    1000.0000     100.0000       0.0000 CV
 C21                             B21                             R21                                   0.0100    1000.0000     100.0000       0.0000 CV
 C22                             B22                             R22                                   0.0100    1000.0000     100.0000       0.0000 CV
 C23                             B23                             R23                                   0.0100    1000.0000     100.0000       0.0000 CV
 C24                             B24                             R24                                   0.0100    1000.0000     100.0000       0.0000 CV
 C25                             B25                             R25                                   0.0100    1000.0000     100.0000       0.0000 CV
 C26                             B26                             R26                                   0.0100    1000.0000     100.0000       0.0000 CV
 C27                             B27                             R27                                   0.0100    1000.0000     100.0000       0.0000 CV
 C28                             B28                             R28                                   0.0100    1000.0000     100.0000       0.0000 CV
 C29                             B29                             R29                                   0.0100    1000.0000     100.0000       0.0000 CV
 C30                             B30                             R30                                   0.0100    1000.0000     100.0000       0.0000 CV
 C31                             B31                             R31                                   0.0100    1000.0000     100.0000       0.0000 CV
 C32                             B32                             R32                                   0.0100    1000.0000     100.0000       0.0000 CV
 C33                             B33                             R33                                   0.0100    1000.0000     100.0000       0.0000 CV
 C34                             B34                             R34                                   0.0100    1000.0000     100.0000       0.0000 CV
 C35                             B35                             R35                                   0.0100    1000.0000     100.0000       0.0000 CV
 C36                             B36                             R36                                   0.0100    1000.0000     100.0000       0.0000 CV
 C37                             B37                             R37                                   0.0100    1000.0000     100.0000       0.0000 CV
 C38                             B38                             R38                                   0.0100    1000.0000     100.0000       0.0000 CV
 C39                             B39                             R39                                   0.0100    1000.0000     100.0000       0.0000 CV
 C40                             B40                             R40                                   0.0100    1000.0000     100.0000       0.0000 CV
 C41                             B41                             R41                                   0.0100    1000.0000     100.0000       0.0000 CV
 C42                             B42                             R42                                   0.0100    1000.0000     100.0000       0.0000 CV
 C43                             B43                             R43                                   0.0100    1000.0000     100.0000       0.0000 CV
 C44                             B44                             R44                                   0.0100    1000.0000     100.0000       0.0000 CV
 C45                             B45                             R45                                   0.0100    1000.0000     100.0000       0.0000 CV
 C46                             B46                             R46                                   0.0100    1000.0000     100.0000       0.0000 CV
 C47                             B47                             R47                                   0.0100    1000.0000     100.0000       0.0000 CV
 C48                             B48                             R48                                   0.0100    1000.0000     100.0000       0.0000 CV
 C49                             B49                             R49                                   0.0100    1000.0000     100.0000       0.0000 CV

[PUMPS]

[VALVES]
 F1                              1                               A1                                 1000.0000   FCV      40.0000       0.0000
 T1                              A1                              B1                                  150.0000   TCV      76.5087       0.0000
 F2                              2                               A2                                 1000.0000   FCV      82.0000       0.0000
 T2                              A2                              B2                                  150.0000   TCV      18.2055       0.0000
 F3                              3                               A3                                 1000.0000   FCV      56.0000       0.0000
 T3                              A3                              B3                                  150.0000   TCV      39.0351       0.0000
 F4                              4                               A4                                 1000.0000   FCV      69.0000       0.0000
 T4                              A4                              B4                                  150.0000   TCV      25.7118       0.0000
 F5                              5                               A5                                 1000.0000   FCV      99.0000       0.0000
 T5                              A5                              B5                                  150.0000   TCV      12.4899       0.0000