[TITLE]
Scenario:	»ù´¡	
Date:	2013-9-11	19:48:06

[JUNCTIONS]
;ID              	Elev        	Demand      	Pattern         
 1               	9.2         	40          	                	;
 2               	8           	82          	                	;
 3               	10.2        	56          	                	;
 4               	10          	69          	                	;
 5               	11          	99          	                	;
 6               	15          	233         	                	;
 7               	12          	121         	                	;
 8               	11.4        	266         	                	;
 9               	10.5        	276         	                	;
 10              	12          	205         	                	;
 11              	12.9        	27          	                	;
 12              	17.6        	174         	                	;
 13              	12          	147         	                	;
 14              	10.6        	151         	                	;
 15              	9           	47          	                	;
 16              	11.8        	76          	                	;
 17              	14.5        	122         	                	;
 18              	10.9        	123         	                	;
 19              	10          	120         	                	;
 20              	10.6        	59          	                	;
 21              	9.3         	116         	                	;
 22              	11.5        	286         	                	;
 23              	18          	194         	                	;
 24              	10          	100         	                	;
 25              	10.8        	138         	                	;
 26              	13.3        	76          	                	;
 27              	9           	83          	                	;
 28              	10.4        	220         	                	;
 29              	11.2        	168         	                	;
 30              	9.5         	117         	                	;
 31              	9.2         	14          	                	;
 32              	20.5        	141         	                	;
 33              	9.6         	96          	                	;
 34              	18          	85          	                	;
 35              	18.8        	82          	                	;
 36              	11.7        	123         	                	;
 37              	9.4         	86          	                	;
 38              	9.1         	191         	                	;
 39              	9.8         	47          	                	;
 40              	12          	210         	                	;
 41              	30.5        	80          	                	;
 42              	12          	137         	                	;
 43              	12.1        	72          	                	;
 44              	15          	39          	                	;
 45              	9.1         	38          	                	;
 46              	9.6         	28          	                	;
 47              	15.5        	408         	                	;
 48              	18.8        	28          	                	;
 49              	9.7         	94          	                	;
 54              	0           	0           	                	;
 55              	0           	0           	                	;
 56              	0           	0           	                	;
 57              	0           	0           	                	;

[RESERVOIRS]
;ID              	Head        	Pattern         
 50              	0           	                	;
 53              	0           	                	;
 52              	0           	                	;
 51              	0           	                	;

[TANKS]
;ID              	Elevation   	InitLevel   	MinLevel    	MaxLevel    	Diameter    	MinVol      	VolCurve

[PIPES]
;ID              	Node1           	Node2           	Length      	Diameter    	Roughness   	MinorLoss   	Status
 1               	1               	2               	1200        	1400        	80          	0           	Open  	;
 2               	1               	3               	1400        	900         	120         	0           	Open  	;
 3               	2               	3               	800         	300         	120         	0           	Open  	;
 4               	3               	4               	2000        	300         	120         	0           	Open  	;
 5               	3               	5               	1300        	900         	120         	0           	Open  	;
 6               	2               	6               	2100        	750         	120         	0           	Open  	;
 7               	2               	7               	2600        	600         	120         	0           	Open  	;
 8               	2               	8               	3500        	1000        	120         	0           	Open  	;
 9               	8               	9               	800         	1000        	120         	0           	Open  	;
 10              	9               	18              	600         	700         	120         	0           	Open  	;
 11              	9               	10              	1300        	300         	120         	0           	Open  	;
 12              	13              	10              	1300        	300         	120         	0           	Open  	;
 13              	8               	12              	3700        	500         	120         	0           	Open  	;
 14              	12              	13              	1450        	500         	120         	0           	Open  	;
 15              	14              	13              	500         	500         	120         	0           	Open  	;
 16              	6               	7               	1400        	600         	120         	0           	Open  	;
 17              	7               	9               	1500        	500         	120         	0           	Open  	;
 18              	7               	18              	1100        	500         	120         	0           	Open  	;
 19              	18              	17              	900         	500         	120         	0           	Open  	;
 20              	18              	19              	1400        	500         	120         	0           	Open  	;
 21              	9               	14              	1200        	850         	120         	0           	Open  	;
 22              	14              	26              	1600        	500         	120         	0           	Open  	;
 23              	14              	19              	700         	500         	120         	0           	Open  	;
 24              	7               	17              	1000        	600         	120         	0           	Open  	;
 25              	4               	15              	1750        	300         	120         	0           	Open  	;
 26              	5               	4               	2300        	500         	120         	0           	Open  	;
 27              	5               	16              	1100        	900         	120         	0           	Open  	;
 28              	6               	24              	2600        	500         	120         	0           	Open  	;
 29              	17              	25              	750         	600         	120         	0           	Open  	;
 30              	25              	19              	1300        	500         	120         	0           	Open  	;
 31              	19              	26              	1600        	500         	120         	0           	Open  	;
 32              	15              	20              	500         	300         	120         	0           	Open  	;
 33              	15              	21              	1400        	200         	120         	0           	Open  	;
 34              	16              	21              	2900        	500         	120         	0           	Open  	;
 35              	16              	23              	2700        	700         	120         	0           	Open  	;
 36              	27              	20              	1200        	500         	120         	0           	Open  	;
 37              	27              	21              	1050        	500         	120         	0           	Open  	;
 38              	21              	22              	1200        	500         	120         	0           	Open  	;
 39              	33              	34              	1000        	500         	120         	0           	Open  	;
 40              	34              	27              	1500        	500         	120         	0           	Open  	;
 41              	41              	34              	1000        	600         	120         	0           	Open  	;
 42              	28              	22              	2000        	300         	120         	0           	Open  	;
 43              	29              	22              	2900        	500         	120         	0           	Open  	;
 44              	49              	41              	3000        	1600        	90          	0           	Open  	;
 45              	41              	35              	1700        	1400        	90          	0           	Open  	;
 46              	35              	36              	850         	1400        	90          	0           	Open  	;
 47              	36              	28              	1400        	1100        	100         	0           	Open  	;
 48              	28              	29              	1100        	1100        	100         	0           	Open  	;
 49              	23              	29              	950         	850         	90          	0           	Open  	;
 50              	23              	24              	950         	500         	120         	0           	Open  	;
 51              	24              	25              	900         	500         	120         	0           	Open  	;
 52              	29              	30              	3000        	700         	120         	0           	Open  	;
 53              	41              	47              	3150        	500         	120         	0           	Open  	;
 54              	35              	42              	1200        	500         	120         	0           	Open  	;
 55              	42              	47              	1500        	500         	120         	0           	Open  	;
 56              	42              	43              	1000        	500         	120         	0           	Open  	;
 57              	36              	43              	1100        	500         	120         	0           	Open  	;
 58              	43              	48              	3600        	1000        	120         	0           	Open  	;
 59              	48              	44              	800         	1000        	120         	0           	Open  	;
 60              	37              	44              	1750        	600         	120         	0           	Open  	;
 61              	30              	37              	1100        	500         	120         	0           	Open  	;
 62              	37              	45              	550         	500         	120         	0           	Open  	;
 63              	45              	38              	480         	400         	120         	0           	Open  	;
 64              	25              	38              	2820        	700         	120         	0           	Open  	;
 65              	38              	46              	680         	600         	120         	0           	Open  	;
 66              	40              	46              	550         	500         	120         	0           	Open  	;
 67              	44              	40              	2800        	700         	120         	0           	Open  	;
 68              	46              	39              	1000        	500         	120         	0           	Open  	;
 69              	31              	39              	1400        	300         	120         	0           	Open  	;
 70              	26              	31              	650         	500         	120         	0           	Open  	;
 71              	26              	32              	1400        	500         	120         	0           	Open  	;
 72              	39              	32              	1000        	500         	120         	0           	Open  	;
 73              	11              	12              	900         	500         	120         	0           	Open  	;
 74              	24              	30              	1100        	500         	120         	0           	Open  	;
 75              	54              	1               	1742        	1000        	120         	0           	Open  	;
 76              	11              	55              	6636.3      	500         	120         	0           	Open  	;
 77              	49              	56              	4262.8      	1000        	120         	0           	Open  	;
 78              	33              	57              	8577.1      	500         	120         	0           	Open  	;

[PUMPS]
;ID              	Node1           	Node2           	Parameters
 79              	50              	54              	HEAD 50	;
 80              	51              	55              	HEAD 51	;
 81              	52              	56              	HEAD 52	;
 82              	53              	57              	HEAD 53	;

[VALVES]
;ID              	Node1           	Node2           	Diameter    	Type	Setting     	MinorLoss   

[TAGS]

[DEMANDS]
;Junction        	Demand      	Pattern         	Category

[STATUS]
;ID              	Status/Setting

[PATTERNS]
;ID              	Multipliers

[CURVES]
;ID              	X-Value     	Y-Value
;PUMP: 
 50              	3169.39     	76.95       
;PUMP: 
 51              	256.60      	81.98       
;PUMP: 
 52              	2282.42     	83.58       
;PUMP: 
 53              	281.59      	74.31       

[CONTROLS]



[RULES]



[ENERGY]
 Global Efficiency  	75
 Global Price       	0
 Demand Charge      	0

[EMITTERS]
;Junction        	Coefficient

[QUALITY]
;Node            	InitQual

[SOURCES]
;Node            	Type        	Quality     	Pattern

[REACTIONS]
;Type     	Pipe/Tank       	Coefficient


[REACTIONS]
 Order Bulk            	1
 Order Tank            	1
 Order Wall            	1
 Global Bulk           	0
 Global Wall           	0
 Limiting Potential    	0
 Roughness Correlation 	0

[MIXING]
;Tank            	Model

[TIMES]
 Duration           	0:00 
 Hydraulic Timestep 	1:00 
 Quality Timestep   	0:00 
 Pattern Timestep   	1:00 
 Pattern Start      	0:00 
 Report Timestep    	1:00 
 Report Start       	0:00 
 Start ClockTime    	12 am
 Statistic          	NONE

[REPORT]
 Status             	No
 Summary            	No
 Page               	0

[OPTIONS]
 Units              	LPS
 Headloss           	H-W
 Specific Gravity   	0.998
 Viscosity          	1
 Trials             	40
 Accuracy           	0.001
 CHECKFREQ          	2
 MAXCHECK           	10
 DAMPLIMIT          	0
 Unbalanced         	Continue 10
 Pattern            	1
 Demand Multiplier  	1.0
 Emitter Exponent   	0.5
 Quality            	NONE mg/L
 Diffusivity        	1
 Tolerance          	0.01

[COORDINATES]
;Node            	X-Coord         	Y-Coord
 1               	0.00            	0.00            
 2               	0.00            	-5.00           
 3               	5.00            	0.00            
 4               	10.00           	-5.00           
 5               	5.00            	-5.00           
 6               	0.00            	-10.00          
 7               	-5.00           	-10.00          
 8               	-25.00          	-5.00           
 9               	-15.00          	-10.00          
 10              	-20.00          	-10.00          
 11              	-30.00          	-20.00          
 12              	-25.00          	-20.00          
 13              	-20.00          	-20.00          
 14              	-15.00          	-20.00          
 15              	25.00           	-5.00           
 16              	5.00            	-10.00          
 17              	-5.00           	-15.00          
 18              	-10.00          	-15.00          
 19              	-10.00          	-20.00          
 20              	30.00           	-5.00           
 21              	25.00           	-10.00          
 22              	15.00           	-15.00          
 23              	5.00            	-20.00          
 24              	0.00            	-20.00          
 25              	-5.00           	-20.00          
 26              	-15.00          	-25.00          
 27              	30.00           	-10.00          
 28              	15.00           	-20.00          
 29              	10.00           	-20.00          
 30              	10.00           	-25.00          
 31              	-10.00          	-25.00          
 32              	-15.00          	-35.00          
 33              	35.00           	-15.00          
 34              	30.00           	-15.00          
 35              	25.00           	-20.00          
 36              	20.00           	-20.00          
 37              	10.00           	-30.00          
 38              	-5.00           	-30.00          
 39              	-10.00          	-35.00          
 40              	15.00           	-35.00          
 41              	30.00           	-20.00          
 42              	25.00           	-25.00          
 43              	20.00           	-25.00          
 44              	15.00           	-30.00          
 45              	3.00            	-30.00          
 46              	-5.00           	-35.00          
 47              	30.00           	-25.00          
 48              	20.00           	-30.00          
 49              	35.00           	-20.00          
 54              	-5.00           	0.00            
 55              	-30.00          	-25.00          
 56              	40.00           	-20.00          
 57              	40.00           	-15.00          
 50              	-10.00           	0.00            
 53              	45.00           	-15.00          
 52              	45.00           	-20.00          
 51              	-30.00          	-30.00          

[VERTICES]
;Link            	X-Coord         	Y-Coord

[LABELS]
;X-Coord           Y-Coord          Label & Anchor Node

[BACKDROP]
 DIMENSIONS     	-33.50          	-36.75          	43.50           	1.75            
 UNITS          	None
 FILE           	
 OFFSET         	0.00            	0.00            

[END]
