[TITLE]


[JUNCTIONS]
;ID              	Elev        	Demand      	Pattern         
 1               	39.490000   	0.000000    	1               	;
 2               	39.620000   	0.000000    	1               	;
 3               	38.700000   	0.000000    	1               	;
 4               	37.250000   	0.000000    	1               	;
 5               	36.270000   	0.000000    	1               	;
 6               	35.950000   	0.000000    	1               	;
 7               	35.950000   	0.000000    	1               	;
 8               	36.090000   	0.000000    	1               	;
 9               	36.180000   	0.000000    	1               	;
 10              	37.000000   	0.000000    	1               	;
 11              	36.500000   	0.000000    	1               	;
 12              	37.390000   	0.000000    	1               	;
 13              	38.070000   	0.000000    	1               	;
 14              	37.020000   	0.000000    	1               	;
 15              	41.260000   	0.000000    	1               	;
 16              	39.350000   	0.000000    	1               	;
 17              	39.530000   	0.000000    	1               	;
 18              	36.590000   	0.000000    	1               	;
 19              	36.760000   	0.000000    	1               	;
 20              	37.720000   	0.000000    	1               	;
 21              	37.310000   	0.000000    	1               	;
 22              	37.620000   	0.000000    	1               	;
 23              	36.990000   	0.000000    	1               	;
 24              	35.200000   	0.000000    	1               	;
 25              	35.110000   	0.000000    	1               	;
 26              	34.650000   	0.000000    	1               	;
 27              	34.330000   	0.000000    	1               	;
 28              	36.150000   	0.000000    	1               	;
 29              	36.300000   	0.000000    	1               	;
 30              	36.100000   	0.000000    	1               	;
 31              	36.140000   	0.000000    	1               	;
 32              	35.800000   	0.000000    	1               	;
 33              	33.260000   	0.000000    	1               	;
 34              	33.340000   	0.000000    	1               	;
 35              	33.510000   	0.000000    	1               	;
 36              	32.700000   	0.000000    	1               	;
 37              	32.650000   	0.000000    	1               	;
 38              	32.560000   	0.000000    	1               	;
 39              	33.560000   	0.000000    	1               	;
 40              	31.590000   	0.000000    	1               	;
 41              	31.380000   	0.000000    	1               	;
 42              	32.670000   	0.000000    	1               	;
 43              	33.500000   	0.000000    	1               	;
 44              	33.570000   	0.000000    	1               	;
 45              	33.770000   	0.000000    	1               	;
 46              	34.140000   	0.000000    	1               	;
 47              	33.680000   	0.000000    	1               	;
 48              	33.710000   	0.000000    	1               	;
 49              	31.680000   	0.000000    	1               	;
 50              	33.340000   	0.000000    	1               	;
 51              	32.830000   	0.000000    	1               	;
 52              	32.780000   	0.000000    	1               	;
 53              	39.280000   	0.000000    	1               	;
 54              	37.120000   	0.000000    	1               	;
 55              	36.480000   	0.000000    	1               	;
 56              	36.420000   	0.000000    	1               	;
 57              	36.130000   	0.000000    	1               	;
 58              	36.050000   	0.000000    	1               	;
 59              	36.770000   	0.000000    	1               	;
 60              	35.480000   	0.000000    	1               	;
 61              	35.050000   	0.000000    	1               	;
 62              	35.100000   	0.000000    	1               	;
 63              	37.950000   	0.000000    	1               	;
 64              	38.440000   	0.000000    	1               	;
 65              	37.810000   	0.000000    	1               	;
 66              	38.220000   	0.000000    	1               	;
 67              	38.730000   	0.000000    	1               	;
 68              	38.950000   	0.000000    	1               	;
 69              	39.700000   	0.000000    	1               	;
 70              	40.590000   	0.000000    	1               	;
 71              	40.810000   	0.000000    	1               	;
 72              	41.060000   	0.000000    	1               	;
 73              	41.450000   	0.000000    	1               	;
 74              	41.830000   	0.000000    	1               	;
 75              	41.440000   	0.000000    	1               	;
 76              	41.090000   	0.000000    	1               	;
 77              	40.740000   	0.000000    	1               	;
 78              	38.600000   	0.000000    	1               	;
 79              	36.910000   	0.000000    	1               	;
 80              	36.750000   	0.000000    	1               	;
 81              	36.810000   	0.000000    	1               	;
 82              	37.050000   	0.000000    	1               	;
 83              	35.880000   	0.000000    	1               	;
 84              	36.450000   	0.000000    	1               	;
 85              	36.160000   	0.000000    	1               	;
 86              	34.990000   	0.000000    	1               	;
 87              	35.610000   	0.000000    	1               	;
 88              	34.890000   	0.000000    	1               	;
 89              	35.590000   	0.000000    	1               	;
 90              	35.700000   	0.000000    	1               	;
 91              	35.200000   	0.000000    	1               	;
 92              	35.640000   	0.000000    	1               	;
 93              	35.930000   	0.000000    	1               	;
 94              	37.640000   	0.000000    	1               	;
 95              	37.170000   	0.000000    	1               	;
 96              	37.100000   	0.000000    	1               	;
 97              	36.970000   	0.000000    	1               	;
 98              	37.000000   	0.000000    	1               	;
 99              	36.740000   	0.000000    	1               	;
 100             	34.780000   	0.000000    	1               	;
 101             	34.260000   	0.000000    	1               	;
 102             	33.660000   	0.000000    	1               	;
 103             	33.780000   	0.000000    	1               	;
 104             	33.750000   	0.000000    	1               	;
 105             	33.380000   	0.000000    	1               	;
 106             	34.850000   	0.000000    	1               	;
 107             	34.270000   	0.000000    	1               	;
 108             	34.300000   	0.000000    	1               	;
 109             	33.950000   	0.000000    	1               	;
 110             	33.920000   	0.000000    	1               	;
 111             	32.320000   	0.000000    	1               	;
 112             	34.760000   	0.000000    	1               	;
 113             	34.210000   	0.000000    	1               	;
 114             	34.920000   	0.000000    	1               	;
 115             	32.960000   	0.000000    	1               	;
 116             	30.690000   	0.000000    	1               	;
 117             	30.590000   	0.000000    	1               	;
 118             	30.730000   	0.000000    	1               	;
 119             	30.700000   	0.000000    	1               	;
 120             	31.020000   	0.000000    	1               	;
 121             	31.030000   	0.000000    	1               	;
 122             	31.750000   	0.000000    	1               	;
 123             	32.000000   	0.000000    	1               	;
 124             	32.050000   	0.000000    	1               	;
 125             	32.100000   	0.000000    	1               	;
 126             	33.760000   	0.000000    	1               	;
 127             	32.270000   	0.000000    	1               	;
 128             	31.860000   	0.000000    	1               	;
 129             	32.420000   	0.000000    	1               	;
 130             	33.000000   	0.000000    	1               	;
 131             	33.630000   	0.000000    	1               	;
 132             	36.370000   	0.000000    	1               	;
 133             	35.690000   	0.000000    	1               	;
 134             	35.520000   	0.000000    	1               	;
 135             	35.560000   	0.000000    	1               	;
 136             	35.920000   	0.000000    	1               	;
 137             	35.370000   	0.000000    	1               	;
 138             	35.060000   	0.000000    	1               	;
 139             	34.120000   	0.000000    	1               	;
 140             	39.350000   	0.000000    	1               	;
 141             	39.100000   	0.000000    	1               	;
 142             	39.840000   	0.000000    	1               	;
 143             	39.840000   	0.000000    	1               	;
 144             	39.450000   	0.000000    	1               	;
 145             	39.700000   	0.000000    	1               	;
 146             	37.950000   	0.000000    	1               	;
 147             	37.610000   	0.000000    	1               	;
 148             	37.950000   	0.000000    	1               	;
 149             	35.690000   	0.000000    	1               	;
 150             	35.320000   	0.000000    	1               	;
 151             	35.810000   	0.000000    	1               	;
 152             	35.810000   	0.000000    	1               	;
 153             	36.020000   	0.000000    	1               	;
 154             	38.250000   	0.000000    	1               	;
 155             	37.500000   	0.000000    	1               	;
 156             	37.540000   	0.000000    	1               	;
 157             	37.080000   	0.000000    	1               	;
 158             	36.760000   	0.000000    	1               	;
 159             	35.880000   	0.000000    	1               	;
 160             	35.770000   	0.000000    	1               	;
 161             	34.700000   	0.000000    	1               	;
 162             	35.370000   	0.000000    	1               	;
 163             	34.990000   	0.000000    	1               	;
 164             	35.930000   	0.000000    	1               	;
 165             	36.270000   	0.000000    	1               	;
 166             	32.670000   	0.000000    	1               	;
 167             	32.750000   	0.000000    	1               	;
 168             	32.880000   	0.000000    	1               	;
 169             	34.090000   	0.000000    	1               	;
 170             	36.090000   	0.000000    	1               	;
 171             	36.050000   	0.000000    	1               	;
 172             	36.040000   	0.000000    	1               	;
 173             	36.020000   	0.000000    	1               	;
 174             	31.760000   	0.000000    	1               	;
 175             	31.910000   	0.000000    	1               	;
 176             	31.800000   	0.000000    	1               	;
 177             	31.480000   	0.000000    	1               	;
 178             	31.120000   	0.000000    	1               	;
 179             	31.100000   	0.000000    	1               	;
 180             	31.190000   	0.000000    	1               	;
 181             	30.390000   	0.000000    	1               	;
 182             	30.550000   	0.000000    	1               	;
 183             	31.130000   	0.000000    	1               	;
 184             	31.810000   	0.000000    	1               	;
 185             	32.340000   	0.000000    	1               	;
 186             	32.830000   	0.000000    	1               	;
 187             	33.690000   	0.000000    	1               	;
 188             	33.170000   	0.000000    	1               	;
 189             	33.230000   	0.000000    	1               	;
 190             	33.340000   	0.000000    	1               	;
 191             	33.770000   	0.000000    	1               	;
 192             	33.770000   	0.000000    	1               	;
 193             	32.200000   	0.000000    	1               	;
 194             	34.410000   	0.000000    	1               	;
 195             	33.390000   	0.000000    	1               	;
 196             	34.340000   	0.000000    	1               	;
 197             	35.030000   	0.000000    	1               	;
 198             	34.440000   	0.000000    	1               	;
 199             	34.530000   	0.000000    	1               	;
 200             	34.940000   	0.000000    	1               	;
 201             	34.700000   	0.000000    	1               	;
 202             	36.700000   	0.000000    	1               	;
 203             	36.200000   	0.000000    	1               	;
 204             	35.030000   	0.000000    	1               	;
 205             	36.770000   	0.000000    	1               	;
 206             	36.200000   	0.000000    	1               	;
 207             	37.880000   	0.000000    	1               	;
 208             	38.030000   	0.000000    	1               	;
 209             	36.860000   	0.000000    	1               	;
 210             	37.240000   	0.000000    	1               	;
 211             	36.660000   	0.000000    	1               	;
 212             	36.490000   	0.000000    	1               	;
 213             	37.300000   	0.000000    	1               	;
 214             	40.300000   	0.000000    	1               	;
 215             	39.850000   	0.000000    	1               	;
 216             	41.000000   	0.000000    	1               	;
 217             	41.160000   	0.000000    	1               	;
 218             	35.050000   	0.000000    	1               	;
 219             	33.920000   	0.000000    	1               	;
 220             	32.140000   	0.000000    	1               	;
 221             	34.170000   	0.000000    	1               	;
 222             	35.100000   	0.000000    	1               	;
 223             	31.550000   	0.000000    	1               	;
 224             	31.750000   	0.000000    	1               	;
 225             	32.070000   	0.000000    	1               	;
 226             	31.940000   	0.000000    	1               	;
 227             	31.660000   	0.000000    	1               	;
 228             	31.040000   	0.000000    	1               	;
 229             	31.050000   	0.000000    	1               	;
 230             	38.490000   	0.000000    	1               	;
 231             	35.680000   	0.000000    	1               	;
 232             	35.390000   	0.000000    	1               	;
 233             	34.890000   	0.000000    	1               	;
 234             	34.860000   	0.000000    	1               	;
 235             	34.990000   	0.000000    	1               	;
 236             	32.540000   	0.000000    	1               	;
 237             	34.410000   	0.000000    	1               	;
 238             	36.160000   	0.000000    	1               	;
 239             	35.300000   	0.000000    	1               	;
 240             	35.170000   	0.000000    	1               	;
 241             	32.920000   	0.000000    	1               	;
 242             	33.070000   	0.000000    	1               	;
 243             	31.910000   	0.000000    	1               	;
 244             	32.000000   	0.000000    	1               	;
 245             	32.050000   	0.000000    	1               	;
 246             	32.050000   	0.000000    	1               	;
 247             	30.700000   	0.000000    	1               	;
 248             	31.330000   	0.000000    	1               	;
 249             	36.300000   	0.000000    	1               	;
 250             	35.830000   	0.000000    	1               	;
 251             	36.950000   	0.000000    	1               	;
 252             	38.010000   	0.000000    	1               	;
 253             	36.650000   	0.000000    	1               	;
 254             	36.910000   	0.000000    	1               	;
 255             	36.770000   	0.000000    	1               	;
 256             	31.500000   	0.000000    	1               	;
 257             	38.650000   	0.000000    	1               	;
 258             	39.540000   	0.000000    	1               	;
 259             	39.580000   	0.000000    	1               	;
 260             	39.580000   	0.000000    	1               	;
 261             	40.550000   	0.000000    	1               	;
 262             	40.790000   	0.000000    	1               	;
 263             	40.950000   	0.000000    	1               	;
 264             	37.760000   	0.000000    	1               	;
 265             	35.960000   	0.000000    	1               	;
 266             	36.810000   	0.000000    	1               	;
 267             	36.210000   	0.000000    	1               	;
 268             	35.610000   	0.000000    	1               	;
 A1              	39.490000   	0.000000    	1               	;
 B1              	39.490000   	0.000000    	1               	;
 A2              	39.620000   	0.000000    	1               	;
 B2              	39.620000   	0.000000    	1               	;
 A3              	38.700000   	0.000000    	1               	;
 B3              	38.700000   	0.000000    	1               	;
 A4              	37.250000   	0.000000    	1               	;
 B4              	37.250000   	0.000000    	1               	;
 A5              	36.270000   	0.000000    	1               	;
 B5              	36.270000   	0.000000    	1               	;
 A6              	35.950000   	0.000000    	1               	;
 B6              	35.950000   	0.000000    	1               	;
 A7              	35.950000   	0.000000    	1               	;
 B7              	35.950000   	0.000000    	1               	;
 A8              	36.090000   	0.000000    	1               	;
 B8              	36.090000   	0.000000    	1               	;
 A9              	36.180000   	0.000000    	1               	;
 B9              	36.180000   	0.000000    	1               	;
 A10             	37.000000   	0.000000    	1               	;
 B10             	37.000000   	0.000000    	1               	;
 A11             	36.500000   	0.000000    	1               	;
 B11             	36.500000   	0.000000    	1               	;
 A12             	37.390000   	0.000000    	1               	;
 B12             	37.390000   	0.000000    	1               	;
 A13             	38.070000   	0.000000    	1               	;
 B13             	38.070000   	0.000000    	1               	;
 A14             	37.020000   	0.000000    	1               	;
 B14             	37.020000   	0.000000    	1               	;
 A15             	41.260000   	0.000000    	1               	;
 B15             	41.260000   	0.000000    	1               	;
 A16             	39.350000   	0.000000    	1               	;
 B16             	39.350000   	0.000000    	1               	;
 A17             	39.530000   	0.000000    	1               	;
 B17             	39.530000   	0.000000    	1               	;
 A18             	36.590000   	0.000000    	1               	;
 B18             	36.590000   	0.000000    	1               	;
 A19             	36.760000   	0.000000    	1               	;
 B19             	36.760000   	0.000000    	1               	;
 A20             	37.720000   	0.000000    	1               	;
 B20             	37.720000   	0.000000    	1               	;
 A21             	37.310000   	0.000000    	1               	;
 B21             	37.310000   	0.000000    	1               	;
 A22             	37.620000   	0.000000    	1               	;
 B22             	37.620000   	0.000000    	1               	;
 A23             	36.990000   	0.000000    	1               	;
 B23             	36.990000   	0.000000    	1               	;
 A24             	35.200000   	0.000000    	1               	;
 B24             	35.200000   	0.000000    	1               	;
 A25             	35.110000   	0.000000    	1               	;
 B25             	35.110000   	0.000000    	1               	;
 A26             	34.650000   	0.000000    	1               	;
 B26             	34.650000   	0.000000    	1               	;
 A27             	34.330000   	0.000000    	1               	;
 B27             	34.330000   	0.000000    	1               	;
 A28             	36.150000   	0.000000    	1               	;
 B28             	36.150000   	0.000000    	1               	;
 A29             	36.300000   	0.000000    	1               	;
 B29             	36.300000   	0.000000    	1               	;
 A30             	36.100000   	0.000000    	1               	;
 B30             	36.100000   	0.000000    	1               	;
 A31             	36.140000   	0.000000    	1               	;
 B31             	36.140000   	0.000000    	1               	;
 A32             	35.800000   	0.000000    	1               	;
 B32             	35.800000   	0.000000    	1               	;
 A33             	33.260000   	0.000000    	1               	;
 B33             	33.260000   	0.000000    	1               	;
 A34             	33.340000   	0.000000    	1               	;
 B34             	33.340000   	0.000000    	1               	;
 A35             	33.510000   	0.000000    	1               	;
 B35             	33.510000   	0.000000    	1               	;
 A36             	32.700000   	0.000000    	1               	;
 B36             	32.700000   	0.000000    	1               	;
 A37             	32.650000   	0.000000    	1               	;
 B37             	32.650000   	0.000000    	1               	;
 A38             	32.560000   	0.000000    	1               	;
 B38             	32.560000   	0.000000    	1               	;
 A39             	33.560000   	0.000000    	1               	;
 B39             	33.560000   	0.000000    	1               	;
 A40             	31.590000   	0.000000    	1               	;
 B40             	31.590000   	0.000000    	1               	;
 A41             	31.380000   	0.000000    	1               	;
 B41             	31.380000   	0.000000    	1               	;
 A42             	32.670000   	0.000000    	1               	;
 B42             	32.670000   	0.000000    	1               	;
 A43             	33.500000   	0.000000    	1               	;
 B43             	33.500000   	0.000000    	1               	;
 A44             	33.570000   	0.000000    	1               	;
 B44             	33.570000   	0.000000    	1               	;
 A45             	33.770000   	0.000000    	1               	;
 B45             	33.770000   	0.000000    	1               	;
 A46             	34.140000   	0.000000    	1               	;
 B46             	34.140000   	0.000000    	1               	;
 A47             	33.680000   	0.000000    	1               	;
 B47             	33.680000   	0.000000    	1               	;
 A48             	33.710000   	0.000000    	1               	;
 B48             	33.710000   	0.000000    	1               	;
 A49             	31.680000   	0.000000    	1               	;
 B49             	31.680000   	0.000000    	1               	;
 A50             	33.340000   	0.000000    	1               	;
 B50             	33.340000   	0.000000    	1               	;
 A51             	32.830000   	0.000000    	1               	;
 B51             	32.830000   	0.000000    	1               	;
 A52             	32.780000   	0.000000    	1               	;
 B52             	32.780000   	0.000000    	1               	;
 A53             	39.280000   	0.000000    	1               	;
 B53             	39.280000   	0.000000    	1               	;
 A54             	37.120000   	0.000000    	1               	;
 B54             	37.120000   	0.000000    	1               	;
 A55             	36.480000   	0.000000    	1               	;
 B55             	36.480000   	0.000000    	1               	;
 A56             	36.420000   	0.000000    	1               	;
 B56             	36.420000   	0.000000    	1               	;
 A57             	36.130000   	0.000000    	1               	;
 B57             	36.130000   	0.000000    	1               	;
 A58             	36.050000   	0.000000    	1               	;
 B58             	36.050000   	0.000000    	1               	;
 A59             	36.770000   	0.000000    	1               	;
 B59             	36.770000   	0.000000    	1               	;
 A60             	35.480000   	0.000000    	1               	;
 B60             	35.480000   	0.000000    	1               	;
 A61             	35.050000   	0.000000    	1               	;
 B61             	35.050000   	0.000000    	1               	;
 A62             	35.100000   	0.000000    	1               	;
 B62             	35.100000   	0.000000    	1               	;
 A63             	37.950000   	0.000000    	1               	;
 B63             	37.950000   	0.000000    	1               	;
 A64             	38.440000   	0.000000    	1               	;
 B64             	38.440000   	0.000000    	1               	;
 A65             	37.810000   	0.000000    	1               	;
 B65             	37.810000   	0.000000    	1               	;
 A66             	38.220000   	0.000000    	1               	;
 B66             	38.220000   	0.000000    	1               	;
 A67             	38.730000   	0.000000    	1               	;
 B67             	38.730000   	0.000000    	1               	;
 A68             	38.950000   	0.000000    	1               	;
 B68             	38.950000   	0.000000    	1               	;
 A69             	39.700000   	0.000000    	1               	;
 B69             	39.700000   	0.000000    	1               	;
 A70             	40.590000   	0.000000    	1               	;
 B70             	40.590000   	0.000000    	1               	;
 A71             	40.810000   	0.000000    	1               	;
 B71             	40.810000   	0.000000    	1               	;
 A72             	41.060000   	0.000000    	1               	;
 B72             	41.060000   	0.000000    	1               	;
 A73             	41.450000   	0.000000    	1               	;
 B73             	41.450000   	0.000000    	1               	;
 A74             	41.830000   	0.000000    	1               	;
 B74             	41.830000   	0.000000    	1               	;
 A75             	41.440000   	0.000000    	1               	;
 B75             	41.440000   	0.000000    	1               	;
 A76             	41.090000   	0.000000    	1               	;
 B76             	41.090000   	0.000000    	1               	;
 A77             	40.740000   	0.000000    	1               	;
 B77             	40.740000   	0.000000    	1               	;
 A78             	38.600000   	0.000000    	1               	;
 B78             	38.600000   	0.000000    	1               	;
 A79             	36.910000   	0.000000    	1               	;
 B79             	36.910000   	0.000000    	1               	;
 A80             	36.750000   	0.000000    	1               	;
 B80             	36.750000   	0.000000    	1               	;
 A81             	36.810000   	0.000000    	1               	;
 B81             	36.810000   	0.000000    	1               	;
 A82             	37.050000   	0.000000    	1               	;
 B82             	37.050000   	0.000000    	1               	;
 A83             	35.880000   	0.000000    	1               	;
 B83             	35.880000   	0.000000    	1               	;
 A84             	36.450000   	0.000000    	1               	;
 B84             	36.450000   	0.000000    	1               	;
 A85             	36.160000   	0.000000    	1               	;
 B85             	36.160000   	0.000000    	1               	;
 A86             	34.990000   	0.000000    	1               	;
 B86             	34.990000   	0.000000    	1               	;
 A87             	35.610000   	0.000000    	1               	;
 B87             	35.610000   	0.000000    	1               	;
 A88             	34.890000   	0.000000    	1               	;
 B88             	34.890000   	0.000000    	1               	;
 A89             	35.590000   	0.000000    	1               	;
 B89             	35.590000   	0.000000    	1               	;
 A90             	35.700000   	0.000000    	1               	;
 B90             	35.700000   	0.000000    	1               	;
 A91             	35.200000   	0.000000    	1               	;
 B91             	35.200000   	0.000000    	1               	;
 A92             	35.640000   	0.000000    	1               	;
 B92             	35.640000   	0.000000    	1               	;
 A93             	35.930000   	0.000000    	1               	;
 B93             	35.930000   	0.000000    	1               	;
 A94             	37.640000   	0.000000    	1               	;
 B94             	37.640000   	0.000000    	1               	;
 A95             	37.170000   	0.000000    	1               	;
 B95             	37.170000   	0.000000    	1               	;
 A96             	37.100000   	0.000000    	1               	;
 B96             	37.100000   	0.000000    	1               	;
 A97             	36.970000   	0.000000    	1               	;
 B97             	36.970000   	0.000000    	1               	;
 A98             	37.000000   	0.000000    	1               	;
 B98             	37.000000   	0.000000    	1               	;
 A99             	36.740000   	0.000000    	1               	;
 B99             	36.740000   	0.000000    	1               	;
 A100            	34.780000   	0.000000    	1               	;
 B100            	34.780000   	0.000000    	1               	;
 A101            	34.260000   	0.000000    	1               	;
 B101            	34.260000   	0.000000    	1               	;
 A102            	33.660000   	0.000000    	1               	;
 B102            	33.660000   	0.000000    	1               	;
 A103            	33.780000   	0.000000    	1               	;
 B103            	33.780000   	0.000000    	1               	;